<?xml version="1.0" encoding="UTF-8"?>

<!-- generated on 07/26/23 20:29:02 by Eclipse SUMO netedit Version 1.8.0
<configuration xmlns:xsi="http://www.w3.org/2001/XMLSchema-instance" xsi:noNamespaceSchemaLocation="http://sumo.dlr.de/xsd/netconvertConfiguration.xsd">

    <input>
        <sumo-net-file value="D:\code\Motion_Planning\NGSIM_Replay\ngsim_config\ngsim1.net.xml"/>
    </input>

    <output>
        <output-file value="D:\code\Motion_Planning\NGSIM_Replay\ngsim_config\ngsim1.net.xml"/>
    </output>

    <processing>
        <geometry.min-radius.fix.railways value="false"/>
        <geometry.max-grade.fix value="false"/>
        <offset.disable-normalization value="true"/>
        <lefthand value="false"/>
    </processing>

    <junctions>
        <no-turnarounds value="true"/>
        <junctions.corner-detail value="5"/>
        <junctions.limit-turn-speed value="5.5"/>
        <rectangular-lane-cut value="false"/>
    </junctions>

    <pedestrian>
        <walkingareas value="false"/>
    </pedestrian>

    <report>
        <aggregate-warnings value="5"/>
    </report>

</configuration>
-->

<net version="1.6" junctionCornerDetail="5" limitTurnSpeed="5.50" xmlns:xsi="http://www.w3.org/2001/XMLSchema-instance" xsi:noNamespaceSchemaLocation="http://sumo.dlr.de/xsd/net_file.xsd">

    <location netOffset="0.00,0.00" convBoundary="0.00,-40.10,660.00,21.60" origBoundary="-10000000000.00,-10000000000.00,10000000000.00,10000000000.00" projParameter="!"/>

    <edge id=":gneJ2_0" function="internal">
        <lane id=":gneJ2_0_0" index="0" speed="24.59" length="3.46" width="3.60" shape="153.60,1.35 154.60,1.61 155.29,1.74 155.99,1.79 157.02,1.80"/>
    </edge>
    <edge id=":gneJ2_1" function="internal">
        <lane id=":gneJ2_1_0" index="0" speed="24.59" length="3.47" width="3.60" shape="153.55,5.40 157.02,5.40"/>
        <lane id=":gneJ2_1_1" index="1" speed="24.59" length="3.47" width="3.60" shape="153.55,9.00 157.02,9.00"/>
        <lane id=":gneJ2_1_2" index="2" speed="24.59" length="3.47" width="3.60" shape="153.55,12.60 157.02,12.60"/>
        <lane id=":gneJ2_1_3" index="3" speed="24.59" length="3.47" width="3.60" shape="153.55,16.20 157.02,16.20"/>
        <lane id=":gneJ2_1_4" index="4" speed="24.59" length="3.47" width="3.60" shape="153.55,19.80 157.02,19.80"/>
    </edge>
    <edge id=":gneJ3_0" function="internal">
        <lane id=":gneJ3_0_0" index="0" speed="24.59" length="3.34" width="3.60" shape="409.42,1.80 410.41,1.79 411.09,1.76 411.76,1.66 412.73,1.48"/>
    </edge>
    <edge id=":gneJ3_1" function="internal">
        <lane id=":gneJ3_1_0" index="0" speed="24.59" length="3.35" width="3.60" shape="409.42,5.40 412.77,5.40"/>
        <lane id=":gneJ3_1_1" index="1" speed="24.59" length="3.35" width="3.60" shape="409.42,9.00 412.77,9.00"/>
        <lane id=":gneJ3_1_2" index="2" speed="24.59" length="3.35" width="3.60" shape="409.42,12.60 412.77,12.60"/>
        <lane id=":gneJ3_1_3" index="3" speed="24.59" length="3.35" width="3.60" shape="409.42,16.20 412.77,16.20"/>
        <lane id=":gneJ3_1_4" index="4" speed="24.59" length="3.35" width="3.60" shape="409.42,19.80 412.77,19.80"/>
    </edge>

    <edge id="gneE0" from="gneJ1" to="gneJ2" priority="-1">
        <lane id="gneE0_0" index="0" speed="24.59" length="153.55" width="3.60" shape="0.00,5.40 153.55,5.40"/>
        <lane id="gneE0_1" index="1" speed="24.59" length="153.55" width="3.60" shape="0.00,9.00 153.55,9.00"/>
        <lane id="gneE0_2" index="2" speed="24.59" length="153.55" width="3.60" shape="0.00,12.60 153.55,12.60"/>
        <lane id="gneE0_3" index="3" speed="24.59" length="153.55" width="3.60" shape="0.00,16.20 153.55,16.20"/>
        <lane id="gneE0_4" index="4" speed="24.59" length="153.55" width="3.60" shape="0.00,19.80 153.55,19.80"/>
    </edge>
    <edge id="gneE1" from="gneJ2" to="gneJ3" priority="-1">
        <lane id="gneE1_0" index="0" speed="24.59" length="252.40" width="3.60" acceleration="1" shape="157.02,1.80 409.42,1.80"/>
        <lane id="gneE1_1" index="1" speed="24.59" length="252.40" width="3.60" shape="157.02,5.40 409.42,5.40"/>
        <lane id="gneE1_2" index="2" speed="24.59" length="252.40" width="3.60" shape="157.02,9.00 409.42,9.00"/>
        <lane id="gneE1_3" index="3" speed="24.59" length="252.40" width="3.60" shape="157.02,12.60 409.42,12.60"/>
        <lane id="gneE1_4" index="4" speed="24.59" length="252.40" width="3.60" shape="157.02,16.20 409.42,16.20"/>
        <lane id="gneE1_5" index="5" speed="24.59" length="252.40" width="3.60" shape="157.02,19.80 409.42,19.80"/>
    </edge>
    <edge id="gneE2" from="gneJ3" to="gneJ4" priority="-1">
        <lane id="gneE2_0" index="0" speed="24.59" length="247.23" width="3.60" shape="412.77,5.40 660.00,5.40"/>
        <lane id="gneE2_1" index="1" speed="24.59" length="247.23" width="3.60" shape="412.77,9.00 660.00,9.00"/>
        <lane id="gneE2_2" index="2" speed="24.59" length="247.23" width="3.60" shape="412.77,12.60 660.00,12.60"/>
        <lane id="gneE2_3" index="3" speed="24.59" length="247.23" width="3.60" shape="412.77,16.20 660.00,16.20"/>
        <lane id="gneE2_4" index="4" speed="24.59" length="247.23" width="3.60" shape="412.77,19.80 660.00,19.80"/>
    </edge>
    <edge id="gneE3" from="gneJ5" to="gneJ2" priority="-1">
        <lane id="gneE3_0" index="0" speed="24.59" length="151.96" width="3.60" shape="6.84,-38.05 153.60,1.35"/>
    </edge>
    <edge id="gneE5" from="gneJ3" to="gneJ9" priority="-1">
        <lane id="gneE5_0" index="0" speed="24.59" length="226.73" width="3.60" shape="412.73,1.48 635.29,-41.87"/>
    </edge>

    <junction id="gneJ1" type="dead_end" x="0.00" y="21.60" incLanes="" intLanes="" shape="0.00,21.60 0.00,3.60"/>
    <junction id="gneJ2" type="priority" x="222.10" y="21.60" incLanes="gneE3_0 gneE0_0 gneE0_1 gneE0_2 gneE0_3 gneE0_4" intLanes=":gneJ2_0_0 :gneJ2_1_0 :gneJ2_1_1 :gneJ2_1_2 :gneJ2_1_3 :gneJ2_1_4" shape="157.02,21.60 157.02,0.00 155.91,-0.02 155.53,-0.05 155.14,-0.12 154.69,-0.23 154.07,-0.39 153.14,3.09 153.55,3.60 153.55,21.60">
        <request index="0" response="000000" foes="000000" cont="0"/>
        <request index="1" response="000000" foes="000000" cont="0"/>
        <request index="2" response="000000" foes="000000" cont="0"/>
        <request index="3" response="000000" foes="000000" cont="0"/>
        <request index="4" response="000000" foes="000000" cont="0"/>
        <request index="5" response="000000" foes="000000" cont="0"/>
    </junction>
    <junction id="gneJ3" type="priority" x="318.85" y="21.60" incLanes="gneE1_0 gneE1_1 gneE1_2 gneE1_3 gneE1_4 gneE1_5" intLanes=":gneJ3_0_0 :gneJ3_1_0 :gneJ3_1_1 :gneJ3_1_2 :gneJ3_1_3 :gneJ3_1_4" shape="412.77,21.60 412.77,3.60 413.08,3.25 412.39,-0.29 411.30,-0.09 410.91,-0.04 410.53,-0.01 410.06,-0.00 409.42,0.00 409.42,21.60">
        <request index="0" response="000000" foes="000000" cont="0"/>
        <request index="1" response="000000" foes="000000" cont="0"/>
        <request index="2" response="000000" foes="000000" cont="0"/>
        <request index="3" response="000000" foes="000000" cont="0"/>
        <request index="4" response="000000" foes="000000" cont="0"/>
        <request index="5" response="000000" foes="000000" cont="0"/>
    </junction>
    <junction id="gneJ4" type="dead_end" x="660.00" y="21.60" incLanes="gneE2_0 gneE2_1 gneE2_2 gneE2_3 gneE2_4" intLanes="" shape="660.00,3.60 660.00,21.60"/>
    <junction id="gneJ5" type="dead_end" x="6.37" y="-36.31" incLanes="" intLanes="" shape="6.37,-36.31 7.30,-39.79"/>
    <junction id="gneJ9" type="dead_end" x="635.63" y="-40.10" incLanes="gneE5_0" intLanes="" shape="634.94,-43.63 635.63,-40.10"/>

    <connection from="gneE0" to="gneE1" fromLane="0" toLane="1" via=":gneJ2_1_0" dir="s" state="M"/>
    <connection from="gneE0" to="gneE1" fromLane="1" toLane="2" via=":gneJ2_1_1" dir="s" state="M"/>
    <connection from="gneE0" to="gneE1" fromLane="2" toLane="3" via=":gneJ2_1_2" dir="s" state="M"/>
    <connection from="gneE0" to="gneE1" fromLane="3" toLane="4" via=":gneJ2_1_3" dir="s" state="M"/>
    <connection from="gneE0" to="gneE1" fromLane="4" toLane="5" via=":gneJ2_1_4" dir="s" state="M"/>
    <connection from="gneE1" to="gneE5" fromLane="0" toLane="0" via=":gneJ3_0_0" dir="R" state="M"/>
    <connection from="gneE1" to="gneE2" fromLane="1" toLane="0" via=":gneJ3_1_0" dir="s" state="M"/>
    <connection from="gneE1" to="gneE2" fromLane="2" toLane="1" via=":gneJ3_1_1" dir="s" state="M"/>
    <connection from="gneE1" to="gneE2" fromLane="3" toLane="2" via=":gneJ3_1_2" dir="s" state="M"/>
    <connection from="gneE1" to="gneE2" fromLane="4" toLane="3" via=":gneJ3_1_3" dir="s" state="M"/>
    <connection from="gneE1" to="gneE2" fromLane="5" toLane="4" via=":gneJ3_1_4" dir="s" state="M"/>
    <connection from="gneE3" to="gneE1" fromLane="0" toLane="0" via=":gneJ2_0_0" dir="s" state="M"/>

    <connection from=":gneJ2_0" to="gneE1" fromLane="0" toLane="0" dir="s" state="M"/>
    <connection from=":gneJ2_1" to="gneE1" fromLane="0" toLane="1" dir="s" state="M"/>
    <connection from=":gneJ2_1" to="gneE1" fromLane="1" toLane="2" dir="s" state="M"/>
    <connection from=":gneJ2_1" to="gneE1" fromLane="2" toLane="3" dir="s" state="M"/>
    <connection from=":gneJ2_1" to="gneE1" fromLane="3" toLane="4" dir="s" state="M"/>
    <connection from=":gneJ2_1" to="gneE1" fromLane="4" toLane="5" dir="s" state="M"/>
    <connection from=":gneJ3_0" to="gneE5" fromLane="0" toLane="0" dir="R" state="M"/>
    <connection from=":gneJ3_1" to="gneE2" fromLane="0" toLane="0" dir="s" state="M"/>
    <connection from=":gneJ3_1" to="gneE2" fromLane="1" toLane="1" dir="s" state="M"/>
    <connection from=":gneJ3_1" to="gneE2" fromLane="2" toLane="2" dir="s" state="M"/>
    <connection from=":gneJ3_1" to="gneE2" fromLane="3" toLane="3" dir="s" state="M"/>
    <connection from=":gneJ3_1" to="gneE2" fromLane="4" toLane="4" dir="s" state="M"/>

</net>
